136
Lattice="   16.8784049    0.00000000    0.00000000    0.00000000    31.4190658    0.00000000    0.00000000    0.00000000    26.4960837"
C  0.746049109710   17.0077072297   13.1968941423
C   1.50460502118   18.1937309424   13.1882999080
C   2.85508104120   18.1697639751   12.9162813840
C   3.52149420520   16.9760112282   12.5871656008
C   2.81107931706   15.7539312854   12.6506013958
C   1.45223278309   15.8104670983   13.0272335727
C   4.91764301727   16.9731162969   12.2038267752
C   5.55789704821   18.1494352063   11.7642951925
C   6.90913082319   18.1820085702   11.4910127429
C   7.68676852607   17.0192636386   11.6513956876
C   7.02507812866   15.8321321981   11.9640967028
C   5.64948570772   15.7612964016   12.2619336997
C   4.94093434210   14.4901532070   12.4978181217
C   3.52181581473   14.4891698182   12.3796941904
C   5.59823298911   13.2504529545   12.7554393335
C   4.90572590944   12.0408999877   12.6085242040
C   3.56603703852   12.0470177175   12.1290398370
C   2.87025150928   13.2680738870   12.0317433874
C   6.97257140431   13.2254831159   13.3501064464
C   8.07061052273   12.5774528677   12.7752032906
C   9.32301632911   12.5155672181   13.3731109066
C   9.51129847738   13.1519928206   14.5960150426
C   8.45654140991   13.8439122804   15.1892478074
C   7.20472379288   13.8711202141   14.5792824176
C   5.58143354399   10.7417733133   12.9299197852
C   5.88975250804   10.3937389874   14.2523356159
C   6.45465391304   9.15336718113   14.5502641033
C   6.72649475622   8.24129793069   13.5305721190
C   6.45632705693   8.59478640133   12.2084882770
C   5.89025974512   9.83112704459   11.9129797047
C   2.88999391071   10.7489376862   11.8023871597
C   2.77079697865   9.74115914563   12.7717648514
C   2.11085191547   8.54663601638   12.4907468466
C   1.53443502132   8.33657192462   11.2370127525
C   1.65659243674   9.32299883527   10.2609581047
C   2.33530837517   10.5103539523   10.5358945711
C   1.46836577584   13.3039222129   11.5016849609
C   1.11537066705   14.1698654291   10.4539535641
C   16.6999105079   14.3129633412   9.96997725515
C   15.6911199673   13.5400471349   10.5312136979
C   15.9949043439   12.6423251188   11.5548311364
C  0.421109614371   12.5283474855   12.0326764338
C   15.3633433906   15.8516743912   13.1623973446
C   14.0162964219   15.8751182779   12.8740001998
C   15.4194752829   18.2337266754   12.9974683937
C   16.1221781442   17.0373643180   13.1815861312
C   14.0632821708   18.2884324019   12.6141493883
C   13.3523516982   19.5537416547   12.3615106889
C   11.9366524511   19.5557646180   12.5053682137
C   14.0025516953   20.7793055994   12.0345412892
C   13.3073416897   21.9921792657   12.1798803484
C   11.9790549116   21.9986931425   12.6837795586
C   11.2837127277   20.7875502704   12.8056455798
C   15.3975262149   20.7624662965   11.4862738178
C   15.7595880427   19.8932357550   10.4433644370
C  0.177680641630   19.7455414288   9.96975166487
C   1.17938275142   20.5384350298   10.5179056006
C  0.866436625531   21.4477032209   11.5269694400
C   16.4387582205   21.5569653180   12.0007708818
C   9.91665741060   20.7939323120   13.4145239969
C   9.68546132459   20.0915719026   14.6131522408
C   8.44163993286   20.1005592544   15.2365574817
C   7.39205542021   20.8387305375   14.6898661178
C   7.57586904738   21.5253543273   13.4939387297
C   8.81873816726   21.4765176687   12.8783020041
C   13.9660438317   23.2970009104   11.8531318708
C   14.2840423189   23.6360218444   10.5332582017
C   14.8950794529   24.8532554986   10.2348795921
C   15.2038592554   25.7534260267   11.2523924759
C   14.8829152358   25.4294192934   12.5715111265
C   14.2679126580   24.2148191881   12.8681651724
C   11.3288793224   23.2991973894   13.0545434794
C   11.0482470544   23.6148367898   14.3915334040
C   10.4985442991   24.8516054609   14.7317021273
C   10.2145545239   25.7923634979   13.7429726252
C   10.4612804833   25.4733134130   12.4074244636
C   11.0121599089   24.2417916739   12.0687952522
C   13.3516928092   17.0689701654   12.5447695913
C   11.9550153479   17.0803041848   12.1633883041
C   11.2249969554   18.2909181232   12.2531731439
C   11.3099855429   15.9155014583   11.7035186253
C   9.95594204077   15.8911592110   11.4394917310
C   9.84611047364   18.2271004287   11.9742058750
C   9.17999231397   17.0487426358   11.6415738130
H   1.03623803482   19.1466641947   13.3862390256
H   3.40224754882   19.1034331755   12.9482516846
H  0.928221926552   14.8827815666   13.1508869036
H   4.98034843500   19.0529610143   11.6143710297
H   7.35985956441   19.1042035383   11.1409438252
H   7.61449742494   14.9371055287   11.9884646474
F   7.94621815314   12.0091175938   11.5308094577
H   10.1348463566   11.9879411277   12.8872803511
H   10.4810797492   13.1028139182   15.0772539277
H   8.61009650503   14.3515366340   16.1334443955
H   6.38472354316   14.3980941622   15.0567711735
H   5.67230256407   11.0874632689   15.0572430921
H   6.68594139421   8.89982967532   15.5785494546
H   7.16663541088   7.27652612988   13.7595450872
H   6.69118523329   7.91002049566   11.4026322305
H   5.68255710173   10.0969106051   10.8834035863
H   3.19405461228   9.88422140437   13.7594369456
H   2.04225091022   7.78871090293   13.2625452416
H  0.988319965301   7.42474619915   11.0165561386
H   1.19574450688   9.17173428888   9.29112221521
H   2.40308227539   11.2704549075   9.76773270289
F   2.08112645190   14.9597939222   9.87814369831
H   16.4703256631   15.0489388149   9.20487610242
H   14.6755569099   13.6736171853   10.1763745111
H   15.2014394821   12.0650326591   12.0112509011
H  0.635256324362   11.8356964087   12.8388310036
H   15.8289094952   14.8991571905   13.3669991464
H   13.4685510476   14.9415749060   12.8990111760
H   15.9418791824   19.1629869083   13.1214341602
F   14.7979230746   19.1019409625   9.86218608898
H  0.409587277675   19.0104016289   9.20442095898
H   2.19693726009   20.4119628166   10.1678211088
H   1.64981140523   22.0507495128   11.9682602971
H   16.2204674536   22.2605058317   12.7933720215
H   10.5010346074   19.5309912009   15.0590038148
H   8.28518811733   19.5379942571   16.1494664589
H   6.43457095572   20.8882371742   15.1925581801
H   6.76604397829   22.0882162709   13.0440136745
F   8.93489656420   22.0967700518   11.6570086322
H   14.0517159055   22.9390767615   9.73757148137
H   15.1240245840   25.1037779742   9.20499764179
H   15.6745092693   26.6994043864   11.0092865321
H   15.0953667071   26.1309872679   13.3714833067
H   14.0213361715   23.9801079836   13.8985235455
H   11.2703915473   22.8989491551   15.1758056314
H   10.2866247474   25.0741448083   15.7711352302
H   9.78553098774   26.7526939634   14.0088352047
H   10.2190793553   26.1811918546   11.6246859210
H   11.1991283028   24.0053525864   11.0284297567
H   11.8861541836   15.0157285195   11.5266743949
H   9.50043514206   14.9813364732   11.0663431579
H   9.25922943165   19.1216886407   12.0362549514
